/*--------------------------------*- C++ -*----------------------------------*\
| =========                 |                                                 |
| \\      /  F ield         | OpenFOAM: The Open Source CFD Toolbox           |
|  \\    /   O peration     | Version:                                        |
|   \\  /    A nd           | Website:  www.openfoam.com                      |
|    \\/     M anipulation  |                                                 |
\*---------------------------------------------------------------------------*/
FoamFile
{
    version     2.0;
    format      ascii;
    class       polyBoundaryMesh;
    location    "constant/polyMesh";
    object      boundary;
}
// * * * * * * * * * * * * * * * * * * * * * * * * * * * * * * * * * * * * * //

8
(
    outlet
    {
        type            patch;
        nFaces          40;
        startFace       2202;
    }
    upperWall
    {
        type            symmetryPlane;
        inGroups        1(symmetryPlane);
        nFaces          28;
        startFace       2242;
    }
    lowerWall
    {
        type            symmetryPlane;
        inGroups        1(symmetryPlane);
        nFaces          0;
        startFace       2270;
    }
    inlet
    {
        type            patch;
        nFaces          0;
        startFace       2270;
    }
    cylinder
    {
        type            wall;
        inGroups        1(wall);
        nFaces          0;
        startFace       2270;
    }
    frontAndBack
    {
        type            empty;
        inGroups        1(empty);
        nFaces          2272;
        startFace       2270;
    }
    procBoundary7to3
    {
        type            processor;
        inGroups        1(processor);
        nFaces          30;
        startFace       4542;
        matchTolerance  0.0001;
        transform       unknown;
        myProcNo        7;
        neighbProcNo    3;
    }
    procBoundary7to6
    {
        type            processor;
        inGroups        1(processor);
        nFaces          42;
        startFace       4572;
        matchTolerance  0.0001;
        transform       unknown;
        myProcNo        7;
        neighbProcNo    6;
    }
)

// ************************************************************************* //
