/*--------------------------------*- C++ -*----------------------------------*\
| =========                 |                                                 |
| \\      /  F ield         | OpenFOAM: The Open Source CFD Toolbox           |
|  \\    /   O peration     | Version:                                        |
|   \\  /    A nd           | Website:  www.openfoam.com                      |
|    \\/     M anipulation  |                                                 |
\*---------------------------------------------------------------------------*/
FoamFile
{
    version     2.0;
    format      ascii;
    class       polyBoundaryMesh;
    location    "constant/polyMesh";
    object      boundary;
}
// * * * * * * * * * * * * * * * * * * * * * * * * * * * * * * * * * * * * * //

8
(
    outlet
    {
        type            patch;
        nFaces          0;
        startFace       2227;
    }
    upperWall
    {
        type            symmetryPlane;
        inGroups        1(symmetryPlane);
        nFaces          0;
        startFace       2227;
    }
    lowerWall
    {
        type            symmetryPlane;
        inGroups        1(symmetryPlane);
        nFaces          28;
        startFace       2227;
    }
    inlet
    {
        type            patch;
        nFaces          40;
        startFace       2255;
    }
    cylinder
    {
        type            wall;
        inGroups        1(wall);
        nFaces          0;
        startFace       2295;
    }
    frontAndBack
    {
        type            empty;
        inGroups        1(empty);
        nFaces          2300;
        startFace       2295;
    }
    procBoundary0to1
    {
        type            processor;
        inGroups        1(processor);
        nFaces          45;
        startFace       4595;
        matchTolerance  0.0001;
        transform       unknown;
        myProcNo        0;
        neighbProcNo    1;
    }
    procBoundary0to4
    {
        type            processor;
        inGroups        1(processor);
        nFaces          33;
        startFace       4640;
        matchTolerance  0.0001;
        transform       unknown;
        myProcNo        0;
        neighbProcNo    4;
    }
)

// ************************************************************************* //
