/*--------------------------------*- C++ -*----------------------------------*\
| =========                 |                                                 |
| \\      /  F ield         | OpenFOAM: The Open Source CFD Toolbox           |
|  \\    /   O peration     | Version:                                        |
|   \\  /    A nd           | Website:  www.openfoam.com                      |
|    \\/     M anipulation  |                                                 |
\*---------------------------------------------------------------------------*/
FoamFile
{
    version     2.0;
    format      ascii;
    class       polyBoundaryMesh;
    location    "constant/polyMesh";
    object      boundary;
}
// * * * * * * * * * * * * * * * * * * * * * * * * * * * * * * * * * * * * * //

8
(
    inlet
    {
        type            patch;
        nFaces          0;
        startFace       445;
    }
    outlet
    {
        type            patch;
        nFaces          5;
        startFace       445;
    }
    wall
    {
        type            wall;
        inGroups        1(wall);
        nFaces          0;
        startFace       450;
    }
    back
    {
        type            wedge;
        inGroups        1(wedge);
        nFaces          250;
        startFace       450;
    }
    front
    {
        type            wedge;
        inGroups        1(wedge);
        nFaces          250;
        startFace       700;
    }
    axis
    {
        type            empty;
        inGroups        1(empty);
        nFaces          0;
        startFace       950;
    }
    procBoundary3to2
    {
        type            processor;
        inGroups        1(processor);
        nFaces          5;
        startFace       950;
        matchTolerance  0.0001;
        transform       unknown;
        myProcNo        3;
        neighbProcNo    2;
    }
    procBoundary3to7
    {
        type            processor;
        inGroups        1(processor);
        nFaces          50;
        startFace       955;
        matchTolerance  0.0001;
        transform       unknown;
        myProcNo        3;
        neighbProcNo    7;
    }
)

// ************************************************************************* //
