/*--------------------------------*- C++ -*----------------------------------*\
| =========                 |                                                 |
| \\      /  F ield         | OpenFOAM: The Open Source CFD Toolbox           |
|  \\    /   O peration     | Version:                                        |
|   \\  /    A nd           | Website:  www.openfoam.com                      |
|    \\/     M anipulation  |                                                 |
\*---------------------------------------------------------------------------*/
FoamFile
{
    version     2.0;
    format      ascii;
    class       polyBoundaryMesh;
    location    "constant/polyMesh";
    object      boundary;
}
// * * * * * * * * * * * * * * * * * * * * * * * * * * * * * * * * * * * * * //

8
(
    outlet
    {
        type            patch;
        nFaces          0;
        startFace       2227;
    }
    upperWall
    {
        type            symmetryPlane;
        inGroups        1(symmetryPlane);
        nFaces          28;
        startFace       2227;
    }
    lowerWall
    {
        type            symmetryPlane;
        inGroups        1(symmetryPlane);
        nFaces          0;
        startFace       2255;
    }
    inlet
    {
        type            patch;
        nFaces          40;
        startFace       2255;
    }
    cylinder
    {
        type            wall;
        inGroups        1(wall);
        nFaces          0;
        startFace       2295;
    }
    frontAndBack
    {
        type            empty;
        inGroups        1(empty);
        nFaces          2300;
        startFace       2295;
    }
    procBoundary4to0
    {
        type            processor;
        inGroups        1(processor);
        nFaces          33;
        startFace       4595;
        matchTolerance  0.0001;
        transform       unknown;
        myProcNo        4;
        neighbProcNo    0;
    }
    procBoundary4to5
    {
        type            processor;
        inGroups        1(processor);
        nFaces          45;
        startFace       4628;
        matchTolerance  0.0001;
        transform       unknown;
        myProcNo        4;
        neighbProcNo    5;
    }
)

// ************************************************************************* //
