/*--------------------------------*- C++ -*----------------------------------*\
| =========                 |                                                 |
| \\      /  F ield         | OpenFOAM: The Open Source CFD Toolbox           |
|  \\    /   O peration     | Version:                                        |
|   \\  /    A nd           | Website:  www.openfoam.com                      |
|    \\/     M anipulation  |                                                 |
\*---------------------------------------------------------------------------*/
FoamFile
{
    version     2.0;
    format      ascii;
    class       polyBoundaryMesh;
    location    "constant/polyMesh";
    object      boundary;
}
// * * * * * * * * * * * * * * * * * * * * * * * * * * * * * * * * * * * * * //

9
(
    inlet
    {
        type            patch;
        nFaces          0;
        startFace       445;
    }
    outlet
    {
        type            patch;
        nFaces          0;
        startFace       445;
    }
    wall
    {
        type            wall;
        inGroups        1(wall);
        nFaces          50;
        startFace       445;
    }
    back
    {
        type            wedge;
        inGroups        1(wedge);
        nFaces          250;
        startFace       495;
    }
    front
    {
        type            wedge;
        inGroups        1(wedge);
        nFaces          250;
        startFace       745;
    }
    axis
    {
        type            empty;
        inGroups        1(empty);
        nFaces          0;
        startFace       995;
    }
    procBoundary6to2
    {
        type            processor;
        inGroups        1(processor);
        nFaces          50;
        startFace       995;
        matchTolerance  0.0001;
        transform       unknown;
        myProcNo        6;
        neighbProcNo    2;
    }
    procBoundary6to5
    {
        type            processor;
        inGroups        1(processor);
        nFaces          5;
        startFace       1045;
        matchTolerance  0.0001;
        transform       unknown;
        myProcNo        6;
        neighbProcNo    5;
    }
    procBoundary6to7
    {
        type            processor;
        inGroups        1(processor);
        nFaces          5;
        startFace       1050;
        matchTolerance  0.0001;
        transform       unknown;
        myProcNo        6;
        neighbProcNo    7;
    }
)

// ************************************************************************* //
