/*--------------------------------*- C++ -*----------------------------------*\
  =========                 |
  \\      /  F ield         | OpenFOAM: The Open Source CFD Toolbox
   \\    /   O peration     | Website:  https://openfoam.org
    \\  /    A nd           | Version:  9
     \\/     M anipulation  |
\*---------------------------------------------------------------------------*/
FoamFile
{
    version     2.0;
    format      ascii;
    class       dictionary;
    object      blockMeshDict;
}
// * * * * * * * * * * * * * * * * * * * * * * * * * * * * * * * * * * * * * //

convertToMeters 1;

vertices
(
	 (0 0 0)
	 (0 4.98782025e-02 3.487823687e-03)
	 (0 4.98782025e-02 -3.487823687e-03)
	 (1 0 0)
	 (1 4.98782025e-02 3.487823687e-03)
	 (1 4.98782025e-02 -3.487823687e-03)
);

blocks
(
     hex (0 3 5 2 0 3 4 1) (200 10 1) simpleGrading (1 1 1)

);

edges
(
	 arc 1 2 (0 5.000000e-02 0)
	 arc 4 5 (1 5.000000e-02 0)
);

boundary
(
	 inlet
	{
		 type patch;
		 faces
		(
			 (0 1 2 0)
		 );
	}
	 outlet
	{
		 type patch;
		 faces
		 (
			 (3 5 4 3)
		 );
	}
	 wall
	{
		 type wall;
		 faces
		 (
			 (1 4 5 2)
		 );
	}
	 back
	{
		 type wedge;
		 faces
		 (
			 (0 2 5 3)
		 );
	}
	 front
	{
		 type wedge;
		 faces
		 (
			 (0 3 4 1)
		 );
	}
	 axis
	{
		 type empty;
		 faces
		 (
			 (0 3 3 0)
		 );
	}
);

mergePatchPairs
(
);

// ************************************************************************* //
